# Name file for MODFLOW-2005, generated by Flopy version 3.3.0.
#xll:0.0; yll:0.0; rotation:0.0; units:meters; lenuni:2; start_datetime:1-1-1970
LIST               2  Box_Model.list
DIS               11  Box_Model.dis
BAS6              13  Box_Model.bas
LPF               15  Box_Model.lpf
OC                14  Box_Model.oc
PCG               27  Box_Model.pcg
WEL               20  Box_Model.wel
DATA(BINARY)      53  Box_Model.cbc REPLACE
DATA(BINARY)      51  Box_Model.hds REPLACE
